Metadata-Version: 2.4
Name: mesh2vec
Version: 1.3.2
Summary: Aggregate feature vectors on CAE meshes.
License-Expression: MIT
License-File: LICENSE
Author: Renumics GmbH
Author-email: info@renumics.com
Requires-Python: >=3.11,<4.0
Classifier: Programming Language :: Python :: 3
Classifier: Programming Language :: Python :: 3.11
Classifier: Programming Language :: Python :: 3.12
Classifier: Programming Language :: Python :: 3.13
Classifier: Programming Language :: Python :: 3.14
Requires-Dist: joblib (>=1.5.0,<2.0.0)
Requires-Dist: lasso-python (>=2.0.4,<3.0.0)
Requires-Dist: loguru (>=0.7.0,<1.0.0)
Requires-Dist: networkx (>=3.5.0,<4.0.0)
Requires-Dist: numpy (>=2.2.2,<3.0.0)
Requires-Dist: pandas (>=2.3.0,<3.0.0)
Requires-Dist: plotly (>=5.24.0,<6.0.0)
Requires-Dist: scipy (>=1.15.0,<2.0.0)
Requires-Dist: trimesh (>=4.6.0,<5.0.0)
Description-Content-Type: text/markdown

# Mesh2Vec

## Quickstart

<h1 align="center">mesh2vec</h1>
<p align="center">Turn CAE mesh data into aggregated element feature vectors for ML</p>

<p align="center">
	<a href="https://github.com/renumics/mesh2vec"><img src="https://img.shields.io/github/license/renumics/mesh2vec" height="20"/></a>    
 	<a href="https://github.com/renumics/mesh2vec"><img src="https://img.shields.io/pypi/pyversions/mesh2vec" height="20"/></a>   
 	<a href="https://github.com/renumics/mesh2vec"><img src="https://img.shields.io/pypi/wheel/mesh2vec" height="20"/></a>   
</p>
<h3 align="center">
   <a href="https://renumics.github.io/mesh2vec/"><b>Latest Documentation</b></a>
</h3>

## 🚀 Introduction

Mesh2vec is a tool that facilitates the import of Computer-Aided Engineering (CAE) mesh data from [LS-DYNA](https://www.ansys.com/de-de/products/structures/ansys-ls-dyna).
It utilizes various quality metrics of elements and their surrounding neighborhood to aggregate feature vectors for each element. These feature vectors are of equal length and can be effectively utilized as inputs for machine learning methods. This represents a simpler and more efficient alternative to traditional mesh and graph-based approaches for automatic mesh quality analysis.

## ⏱️ Quickstart

### Installation

1. Create and activate a [virtual environment](https://packaging.python.org/en/latest/guides/installing-using-pip-and-virtual-environments/).
2. Use the following command to install mesh2vec into your environment:

```bash
pip install mesh2vec
```

3. Please make sure you have an environment variable ANSA_EXECUTABLE set pointing to your ANSA executable to use ANSA depended features like shell and feature import.
4. You may temporarily need to set an environment variable SKLEARN_ALLOW_DEPRECATED_SKLEARN_PACKAGE_INSTALL=True.

### Load Mesh

```python

from pathlib import Path
from mesh2vec.mesh2vec_cae import Mesh2VecCae
m2v = Mesh2VecCae.from_ansa_shell(4,
    Path("data/hat/Hatprofile.k"),
    json_mesh_file=Path("data/hat/cached_hat_key.json"))
```

### Add element features

```python
m2v.add_features_from_ansa(
    ["aspect", "warpage"],
    Path("data/hat/Hatprofile.k"),
    json_mesh_file=Path("data/hat/cached_hat_key.json"))
```

### Aggregate

```python
import numpy as np
m2v.aggregate("aspect", [0,2,3], np.nanmean)
```

### Extract Feature Vectors

```python
m2v.to_dataframe()
```

![data frame with feature vectors](docs/source/_static/m2v.to_df.png)

### Optional: Visualize a single aggregated feature on mesh

```python
m2v.get_visualization_plotly("aspect-nanmean-2")
```

![3d mesh plot of agggredated](docs/source/_static/hat_aspect_3_plot.png)

